/*--------------------------------*- C++ -*----------------------------------*\
| =========                 |                                                 |
| \\      /  F ield         | OpenFOAM: The Open Source CFD Toolbox           |
|  \\    /   O peration     | Version:  5                                     |
|   \\  /    A nd           | Web:      www.OpenFOAM.org                      |
|    \\/     M anipulation  |                                                 |
\*---------------------------------------------------------------------------*/
FoamFile
{
    version     2.0;
    format      ascii;
    class       volScalarField;
    location    "0";
    object      omega;
}
// https://www.cfdsupport.com/OpenFOAM-Training-by-CFD-Support/node93.html
// https://cpp.openfoam.org/v3/a10800.html
// https://www.cfd-online.com/Wiki/Turbulence_free-stream_boundary_conditions
// * * * * * * * * * * * * * * * * * * * * * * * * * * * * * * * * * * * * * //

dimensions      [0 0 -1 0 0 0 0];

internalField   uniform 1;

boundaryField
{
    #includeEtc "caseDicts/setConstraintTypes"

    Inlet
    {
        type            fixedValue;
        value           uniform 1;
    }

    Outlet
    {
        type            inletOutlet;
        inletValue      uniform 1;
        value           uniform 100;
    }

    Blade
    {
        type            omegaWallFunction;
        value           uniform 100;
    }
    Concentrator
    {
        type            omegaWallFunction;
        value           uniform 100;
    }
}


// ************************************************************************* //
