/*--------------------------------*- C++ -*----------------------------------*\
| =========                 |                                                 |
| \\      /  F ield         | OpenFOAM: The Open Source CFD Toolbox           |
|  \\    /   O peration     | Version:  5                                     |
|   \\  /    A nd           | Web:      www.OpenFOAM.org                      |
|    \\/     M anipulation  |                                                 |
\*---------------------------------------------------------------------------*/
FoamFile
{
    version     2.0;
    format      ascii;
    class       volVectorField;
    location    "0";
    object      U;
}
//https://cfd.direct/openfoam/user-guide/boundaries/
//https://www.cfdsupport.com/OpenFOAM-Training-by-CFD-Support/node93.html
// * * * * * * * * * * * * * * * * * * * * * * * * * * * * * * * * * * * * * //

dimensions      [0 1 -1 0 0 0 0];

internalField   uniform (10 0 0);

boundaryField
{
    #includeEtc "caseDicts/setConstraintTypes"

    Inlet
    {
        type            fixedValue;
        value           uniform (10 0 0);
    }

    Outlet
    {
        type            inletOutlet;
        inletValue      uniform (0 0 0);
        value           uniform (0 0 0);
    }

    Blade
    {
        type            movingWallVelocity;
        value           uniform (0 0 0);
    }

    Concentrator
    {
        type            noSlip;
    }


}


// ************************************************************************* //
